This is initial information.
line 2
This is private information.
This is initial info
New line.
Hello
This is initial info
New line.
